REMARK VINA RESULT:      -6.2      1.628      1.686
REMARK  2 active torsions:
REMARK  status: ('A' for Active; 'I' for Inactive)
REMARK       I    between atoms: C2_2  and  N1_4 
REMARK    1  A    between atoms: N1_4  and  C3_5 
REMARK    2  A    between atoms: C6_8  and  O2_9 
ROOT
ATOM      1  C3  LIG A   1      25.599  28.875  40.307  1.00  0.00     0.034 A 
ATOM      2  C4  LIG A   1      24.860  30.049  40.557  1.00  0.00     0.032 A 
ATOM      3  C5  LIG A   1      23.957  30.552  39.615  1.00  0.00     0.039 A 
ATOM      4  C6  LIG A   1      23.772  29.897  38.397  1.00  0.00     0.065 A 
ATOM      5  C7  LIG A   1      24.499  28.734  38.124  1.00  0.00     0.039 A 
ATOM      6  C8  LIG A   1      25.401  28.226  39.061  1.00  0.00     0.032 A 
ENDROOT
BRANCH   1   7
ATOM      7  N1  LIG A   1      26.503  28.417  41.334  1.00  0.00    -0.328 N 
ATOM      8  C2  LIG A   1      26.270  27.427  42.255  1.00  0.00     0.218 C 
ATOM      9  C1  LIG A   1      27.294  27.030  43.335  1.00  0.00     0.117 C 
ATOM     10  O1  LIG A   1      25.210  26.828  42.282  1.00  0.00    -0.274 OA
ATOM     11  H4  LIG A   1      27.410  28.903  41.387  1.00  0.00     0.169 HD
ENDBRANCH   1   7
BRANCH   4  12
ATOM     12  O2  LIG A   1      22.897  30.391  37.498  1.00  0.00    -0.361 OA
ATOM     13  H7  LIG A   1      22.878  31.328  37.259  1.00  0.00     0.217 HD
ENDBRANCH   4  12
TORSDOF 2
