REMARK VINA RESULT:      -5.4      5.564      6.497
REMARK  2 active torsions:
REMARK  status: ('A' for Active; 'I' for Inactive)
REMARK       I    between atoms: C2_2  and  N1_4 
REMARK    1  A    between atoms: N1_4  and  C3_5 
REMARK    2  A    between atoms: C6_8  and  O2_9 
ROOT
ATOM      1  C3  LIG A   1      26.164  26.512  44.199  1.00  0.00     0.034 A 
ATOM      2  C4  LIG A   1      25.550  26.211  42.966  1.00  0.00     0.032 A 
ATOM      3  C5  LIG A   1      24.849  25.015  42.777  1.00  0.00     0.039 A 
ATOM      4  C6  LIG A   1      24.750  24.087  43.813  1.00  0.00     0.065 A 
ATOM      5  C7  LIG A   1      25.356  24.360  45.043  1.00  0.00     0.039 A 
ATOM      6  C8  LIG A   1      26.055  25.553  45.239  1.00  0.00     0.032 A 
ENDROOT
BRANCH   1   7
ATOM      7  N1  LIG A   1      26.859  27.771  44.316  1.00  0.00    -0.328 N 
ATOM      8  C2  LIG A   1      28.200  27.992  44.135  1.00  0.00     0.218 C 
ATOM      9  C1  LIG A   1      28.852  29.376  44.312  1.00  0.00     0.117 C 
ATOM     10  O1  LIG A   1      28.957  27.081  43.851  1.00  0.00    -0.274 OA
ATOM     11  H4  LIG A   1      26.281  28.582  44.584  1.00  0.00     0.169 HD
ENDBRANCH   1   7
BRANCH   4  12
ATOM     12  O2  LIG A   1      24.070  22.938  43.619  1.00  0.00    -0.361 OA
ATOM     13  H7  LIG A   1      23.131  22.853  43.836  1.00  0.00     0.217 HD
ENDBRANCH   4  12
TORSDOF 2
