REMARK VINA RESULT:      -5.5      6.791      8.430
REMARK  2 active torsions:
REMARK  status: ('A' for Active; 'I' for Inactive)
REMARK       I    between atoms: C2_2  and  N1_4 
REMARK    1  A    between atoms: N1_4  and  C3_5 
REMARK    2  A    between atoms: C6_8  and  O2_9 
ROOT
ATOM      1  C3  LIG A   1      24.506  24.606  45.685  1.00  0.00     0.034 A 
ATOM      2  C4  LIG A   1      24.336  24.996  47.029  1.00  0.00     0.032 A 
ATOM      3  C5  LIG A   1      23.173  24.675  47.737  1.00  0.00     0.039 A 
ATOM      4  C6  LIG A   1      22.147  23.960  47.117  1.00  0.00     0.065 A 
ATOM      5  C7  LIG A   1      22.289  23.569  45.783  1.00  0.00     0.039 A 
ATOM      6  C8  LIG A   1      23.449  23.884  45.071  1.00  0.00     0.032 A 
ENDROOT
BRANCH   1   7
ATOM      7  N1  LIG A   1      25.739  24.967  45.029  1.00  0.00    -0.328 N 
ATOM      8  C2  LIG A   1      25.939  26.018  44.171  1.00  0.00     0.218 C 
ATOM      9  C1  LIG A   1      27.294  26.303  43.497  1.00  0.00     0.117 C 
ATOM     10  O1  LIG A   1      25.029  26.770  43.871  1.00  0.00    -0.274 OA
ATOM     11  H4  LIG A   1      26.546  24.353  45.216  1.00  0.00     0.169 HD
ENDBRANCH   1   7
BRANCH   4  12
ATOM     12  O2  LIG A   1      21.031  23.655  47.811  1.00  0.00    -0.361 OA
ATOM     13  H7  LIG A   1      20.961  23.806  48.764  1.00  0.00     0.217 HD
ENDBRANCH   4  12
TORSDOF 2
