REMARK VINA RESULT:      -5.4      8.562      9.012
REMARK  2 active torsions:
REMARK  status: ('A' for Active; 'I' for Inactive)
REMARK       I    between atoms: C2_2  and  N1_4 
REMARK    1  A    between atoms: N1_4  and  C3_5 
REMARK    2  A    between atoms: C6_8  and  O2_9 
ROOT
ATOM      1  C3  LIG A   1      24.804  24.760  46.405  1.00  0.00     0.034 A 
ATOM      2  C4  LIG A   1      24.223  25.038  47.659  1.00  0.00     0.032 A 
ATOM      3  C5  LIG A   1      22.900  24.683  47.941  1.00  0.00     0.039 A 
ATOM      4  C6  LIG A   1      22.121  24.046  46.974  1.00  0.00     0.065 A 
ATOM      5  C7  LIG A   1      22.673  23.765  45.721  1.00  0.00     0.039 A 
ATOM      6  C8  LIG A   1      23.995  24.115  45.434  1.00  0.00     0.032 A 
ENDROOT
BRANCH   1   7
ATOM      7  N1  LIG A   1      26.177  25.149  46.198  1.00  0.00    -0.328 N 
ATOM      8  C2  LIG A   1      27.294  24.529  46.698  1.00  0.00     0.218 C 
ATOM      9  C1  LIG A   1      28.723  25.042  46.441  1.00  0.00     0.117 C 
ATOM     10  O1  LIG A   1      27.203  23.544  47.410  1.00  0.00    -0.274 OA
ATOM     11  H4  LIG A   1      26.326  25.995  45.628  1.00  0.00     0.169 HD
ENDBRANCH   1   7
BRANCH   4  12
ATOM     12  O2  LIG A   1      20.847  23.707  47.259  1.00  0.00    -0.361 OA
ATOM     13  H7  LIG A   1      20.627  22.914  47.766  1.00  0.00     0.217 HD
ENDBRANCH   4  12
TORSDOF 2
