REMARK VINA RESULT:      -5.4      2.571      5.550
REMARK  2 active torsions:
REMARK  status: ('A' for Active; 'I' for Inactive)
REMARK       I    between atoms: C2_2  and  N1_4 
REMARK    1  A    between atoms: N1_4  and  C3_5 
REMARK    2  A    between atoms: C6_8  and  O2_9 
ROOT
ATOM      1  C3  LIG A   1      25.845  28.029  41.703  1.00  0.00     0.034 A 
ATOM      2  C4  LIG A   1      26.939  28.384  42.517  1.00  0.00     0.032 A 
ATOM      3  C5  LIG A   1      27.522  27.461  43.392  1.00  0.00     0.039 A 
ATOM      4  C6  LIG A   1      27.022  26.161  43.478  1.00  0.00     0.065 A 
ATOM      5  C7  LIG A   1      25.934  25.788  42.684  1.00  0.00     0.039 A 
ATOM      6  C8  LIG A   1      25.348  26.704  41.807  1.00  0.00     0.032 A 
ENDROOT
BRANCH   1   7
ATOM      7  N1  LIG A   1      25.308  29.036  40.820  1.00  0.00    -0.328 N 
ATOM      8  C2  LIG A   1      25.441  29.093  39.456  1.00  0.00     0.218 C 
ATOM      9  C1  LIG A   1      24.851  30.232  38.604  1.00  0.00     0.117 C 
ATOM     10  O1  LIG A   1      26.073  28.247  38.848  1.00  0.00    -0.274 OA
ATOM     11  H4  LIG A   1      24.786  29.802  41.273  1.00  0.00     0.169 HD
ENDBRANCH   1   7
BRANCH   4  12
ATOM     12  O2  LIG A   1      27.595  25.280  44.324  1.00  0.00    -0.361 OA
ATOM     13  H7  LIG A   1      27.504  24.324  44.209  1.00  0.00     0.217 HD
ENDBRANCH   4  12
TORSDOF 2
