REMARK VINA RESULT:      -5.7      4.266      5.580
REMARK  2 active torsions:
REMARK  status: ('A' for Active; 'I' for Inactive)
REMARK       I    between atoms: C2_2  and  N1_4 
REMARK    1  A    between atoms: N1_4  and  C3_5 
REMARK    2  A    between atoms: C6_8  and  O2_9 
ROOT
ATOM      1  C3  LIG A   1      25.752  26.433  42.931  1.00  0.00     0.034 A 
ATOM      2  C4  LIG A   1      25.139  26.241  44.185  1.00  0.00     0.032 A 
ATOM      3  C5  LIG A   1      24.061  25.362  44.339  1.00  0.00     0.039 A 
ATOM      4  C6  LIG A   1      23.566  24.657  43.241  1.00  0.00     0.065 A 
ATOM      5  C7  LIG A   1      24.154  24.836  41.986  1.00  0.00     0.039 A 
ATOM      6  C8  LIG A   1      25.232  25.710  41.826  1.00  0.00     0.032 A 
ENDROOT
BRANCH   1   7
ATOM      7  N1  LIG A   1      26.865  27.348  42.859  1.00  0.00    -0.328 N 
ATOM      8  C2  LIG A   1      26.809  28.695  42.608  1.00  0.00     0.218 C 
ATOM      9  C1  LIG A   1      28.064  29.584  42.523  1.00  0.00     0.117 C 
ATOM     10  O1  LIG A   1      25.747  29.256  42.405  1.00  0.00    -0.274 OA
ATOM     11  H4  LIG A   1      27.800  26.934  42.992  1.00  0.00     0.169 HD
ENDBRANCH   1   7
BRANCH   4  12
ATOM     12  O2  LIG A   1      22.528  23.812  43.403  1.00  0.00    -0.361 OA
ATOM     13  H7  LIG A   1      22.650  22.894  43.681  1.00  0.00     0.217 HD
ENDBRANCH   4  12
TORSDOF 2
