REMARK VINA RESULT:      -5.7      8.998     10.584
REMARK  2 active torsions:
REMARK  status: ('A' for Active; 'I' for Inactive)
REMARK       I    between atoms: C2_2  and  N1_4 
REMARK    1  A    between atoms: N1_4  and  C3_5 
REMARK    2  A    between atoms: C6_8  and  O2_9 
ROOT
ATOM      1  C3  LIG A   1      22.032  23.943  47.015  1.00  0.00     0.034 A 
ATOM      2  C4  LIG A   1      22.448  23.496  45.745  1.00  0.00     0.032 A 
ATOM      3  C5  LIG A   1      23.761  23.689  45.302  1.00  0.00     0.039 A 
ATOM      4  C6  LIG A   1      24.690  24.339  46.116  1.00  0.00     0.065 A 
ATOM      5  C7  LIG A   1      24.298  24.797  47.377  1.00  0.00     0.039 A 
ATOM      6  C8  LIG A   1      22.989  24.606  47.826  1.00  0.00     0.032 A 
ENDROOT
BRANCH   1   7
ATOM      7  N1  LIG A   1      20.664  23.696  47.401  1.00  0.00    -0.328 N 
ATOM      8  C2  LIG A   1      20.212  22.725  48.257  1.00  0.00     0.218 C 
ATOM      9  C1  LIG A   1      18.720  22.524  48.583  1.00  0.00     0.117 C 
ATOM     10  O1  LIG A   1      20.981  21.941  48.785  1.00  0.00    -0.274 OA
ATOM     11  H4  LIG A   1      19.955  24.306  46.966  1.00  0.00     0.169 HD
ENDBRANCH   1   7
BRANCH   4  12
ATOM     12  O2  LIG A   1      25.953  24.517  45.678  1.00  0.00    -0.361 OA
ATOM     13  H7  LIG A   1      26.240  25.339  45.257  1.00  0.00     0.217 HD
ENDBRANCH   4  12
TORSDOF 2
