REMARK VINA RESULT:      -5.8      2.002      5.604
REMARK  2 active torsions:
REMARK  status: ('A' for Active; 'I' for Inactive)
REMARK       I    between atoms: C2_2  and  N1_4 
REMARK    1  A    between atoms: N1_4  and  C3_5 
REMARK    2  A    between atoms: C6_8  and  O2_9 
ROOT
ATOM      1  C3  LIG A   1      26.438  28.752  41.722  1.00  0.00     0.034 A 
ATOM      2  C4  LIG A   1      27.720  29.336  41.770  1.00  0.00     0.032 A 
ATOM      3  C5  LIG A   1      28.520  29.239  42.914  1.00  0.00     0.039 A 
ATOM      4  C6  LIG A   1      28.057  28.559  44.040  1.00  0.00     0.065 A 
ATOM      5  C7  LIG A   1      26.786  27.977  44.019  1.00  0.00     0.039 A 
ATOM      6  C8  LIG A   1      25.983  28.069  42.880  1.00  0.00     0.032 A 
ENDROOT
BRANCH   1   7
ATOM      7  N1  LIG A   1      25.681  28.888  40.502  1.00  0.00    -0.328 N 
ATOM      8  C2  LIG A   1      24.775  29.873  40.200  1.00  0.00     0.218 C 
ATOM      9  C1  LIG A   1      23.993  29.913  38.874  1.00  0.00     0.117 C 
ATOM     10  O1  LIG A   1      24.519  30.760  40.995  1.00  0.00    -0.274 OA
ATOM     11  H4  LIG A   1      25.827  28.152  39.795  1.00  0.00     0.169 HD
ENDBRANCH   1   7
BRANCH   4  12
ATOM     12  O2  LIG A   1      28.838  28.471  45.136  1.00  0.00    -0.361 OA
ATOM     13  H7  LIG A   1      29.591  29.062  45.280  1.00  0.00     0.217 HD
ENDBRANCH   4  12
TORSDOF 2
