REMARK VINA RESULT:      -5.4      5.452      6.401
REMARK  2 active torsions:
REMARK  status: ('A' for Active; 'I' for Inactive)
REMARK       I    between atoms: C2_2  and  N1_4 
REMARK    1  A    between atoms: N1_4  and  C3_5 
REMARK    2  A    between atoms: C6_8  and  O2_9 
ROOT
ATOM      1  C3  LIG A   1      26.085  26.563  44.051  1.00  0.00     0.034 A 
ATOM      2  C4  LIG A   1      26.005  25.642  45.115  1.00  0.00     0.032 A 
ATOM      3  C5  LIG A   1      25.333  24.423  44.969  1.00  0.00     0.039 A 
ATOM      4  C6  LIG A   1      24.722  24.096  43.759  1.00  0.00     0.065 A 
ATOM      5  C7  LIG A   1      24.783  24.997  42.692  1.00  0.00     0.039 A 
ATOM      6  C8  LIG A   1      25.453  26.215  42.829  1.00  0.00     0.032 A 
ENDROOT
BRANCH   1   7
ATOM      7  N1  LIG A   1      26.804  27.793  44.279  1.00  0.00    -0.328 N 
ATOM      8  C2  LIG A   1      28.144  28.012  44.084  1.00  0.00     0.218 C 
ATOM      9  C1  LIG A   1      28.825  29.360  44.386  1.00  0.00     0.117 C 
ATOM     10  O1  LIG A   1      28.878  27.124  43.686  1.00  0.00    -0.274 OA
ATOM     11  H4  LIG A   1      26.248  28.580  44.646  1.00  0.00     0.169 HD
ENDBRANCH   1   7
BRANCH   4  12
ATOM     12  O2  LIG A   1      24.079  22.917  43.631  1.00  0.00    -0.361 OA
ATOM     13  H7  LIG A   1      23.207  22.762  44.018  1.00  0.00     0.217 HD
ENDBRANCH   4  12
TORSDOF 2
