MODEL 1
REMARK VINA RESULT:      -6.5      0.000      0.000
REMARK  2 active torsions:
REMARK  status: ('A' for Active; 'I' for Inactive)
REMARK       I    between atoms: C2_2  and  N1_4 
REMARK    1  A    between atoms: N1_4  and  C3_5 
REMARK    2  A    between atoms: C6_8  and  O2_9 
ROOT
ATOM      1  C3  LIG A   1      24.841  29.806  40.479  1.00  0.00     0.034 A 
ATOM      2  C4  LIG A   1      24.298  31.106  40.437  1.00  0.00     0.032 A 
ATOM      3  C5  LIG A   1      23.566  31.552  39.332  1.00  0.00     0.039 A 
ATOM      4  C6  LIG A   1      23.361  30.710  38.238  1.00  0.00     0.065 A 
ATOM      5  C7  LIG A   1      23.895  29.418  38.254  1.00  0.00     0.039 A 
ATOM      6  C8  LIG A   1      24.626  28.967  39.356  1.00  0.00     0.032 A 
ENDROOT
BRANCH   1   7
ATOM      7  N1  LIG A   1      25.574  29.420  41.660  1.00  0.00    -0.328 N 
ATOM      8  C2  LIG A   1      26.925  29.205  41.757  1.00  0.00     0.218 C 
ATOM      9  C1  LIG A   1      27.612  28.765  43.064  1.00  0.00     0.117 C 
ATOM     10  O1  LIG A   1      27.654  29.322  40.788  1.00  0.00    -0.274 OA
ATOM     11  H4  LIG A   1      25.013  29.274  42.513  1.00  0.00     0.169 HD
ENDBRANCH   1   7
BRANCH   4  12
ATOM     12  O2  LIG A   1      22.652  31.151  37.179  1.00  0.00    -0.361 OA
ATOM     13  H7  LIG A   1      22.336  30.553  36.487  1.00  0.00     0.217 HD
ENDBRANCH   4  12
TORSDOF 2
ENDMDL
MODEL 2
REMARK VINA RESULT:      -6.2      1.628      1.686
REMARK  2 active torsions:
REMARK  status: ('A' for Active; 'I' for Inactive)
REMARK       I    between atoms: C2_2  and  N1_4 
REMARK    1  A    between atoms: N1_4  and  C3_5 
REMARK    2  A    between atoms: C6_8  and  O2_9 
ROOT
ATOM      1  C3  LIG A   1      25.599  28.875  40.307  1.00  0.00     0.034 A 
ATOM      2  C4  LIG A   1      24.860  30.049  40.557  1.00  0.00     0.032 A 
ATOM      3  C5  LIG A   1      23.957  30.552  39.615  1.00  0.00     0.039 A 
ATOM      4  C6  LIG A   1      23.772  29.897  38.397  1.00  0.00     0.065 A 
ATOM      5  C7  LIG A   1      24.499  28.734  38.124  1.00  0.00     0.039 A 
ATOM      6  C8  LIG A   1      25.401  28.226  39.061  1.00  0.00     0.032 A 
ENDROOT
BRANCH   1   7
ATOM      7  N1  LIG A   1      26.503  28.417  41.334  1.00  0.00    -0.328 N 
ATOM      8  C2  LIG A   1      26.270  27.427  42.255  1.00  0.00     0.218 C 
ATOM      9  C1  LIG A   1      27.294  27.030  43.335  1.00  0.00     0.117 C 
ATOM     10  O1  LIG A   1      25.210  26.828  42.282  1.00  0.00    -0.274 OA
ATOM     11  H4  LIG A   1      27.410  28.903  41.387  1.00  0.00     0.169 HD
ENDBRANCH   1   7
BRANCH   4  12
ATOM     12  O2  LIG A   1      22.897  30.391  37.498  1.00  0.00    -0.361 OA
ATOM     13  H7  LIG A   1      22.878  31.328  37.259  1.00  0.00     0.217 HD
ENDBRANCH   4  12
TORSDOF 2
ENDMDL
MODEL 3
REMARK VINA RESULT:      -5.8      2.002      5.604
REMARK  2 active torsions:
REMARK  status: ('A' for Active; 'I' for Inactive)
REMARK       I    between atoms: C2_2  and  N1_4 
REMARK    1  A    between atoms: N1_4  and  C3_5 
REMARK    2  A    between atoms: C6_8  and  O2_9 
ROOT
ATOM      1  C3  LIG A   1      26.438  28.752  41.722  1.00  0.00     0.034 A 
ATOM      2  C4  LIG A   1      27.720  29.336  41.770  1.00  0.00     0.032 A 
ATOM      3  C5  LIG A   1      28.520  29.239  42.914  1.00  0.00     0.039 A 
ATOM      4  C6  LIG A   1      28.057  28.559  44.040  1.00  0.00     0.065 A 
ATOM      5  C7  LIG A   1      26.786  27.977  44.019  1.00  0.00     0.039 A 
ATOM      6  C8  LIG A   1      25.983  28.069  42.880  1.00  0.00     0.032 A 
ENDROOT
BRANCH   1   7
ATOM      7  N1  LIG A   1      25.681  28.888  40.502  1.00  0.00    -0.328 N 
ATOM      8  C2  LIG A   1      24.775  29.873  40.200  1.00  0.00     0.218 C 
ATOM      9  C1  LIG A   1      23.993  29.913  38.874  1.00  0.00     0.117 C 
ATOM     10  O1  LIG A   1      24.519  30.760  40.995  1.00  0.00    -0.274 OA
ATOM     11  H4  LIG A   1      25.827  28.152  39.795  1.00  0.00     0.169 HD
ENDBRANCH   1   7
BRANCH   4  12
ATOM     12  O2  LIG A   1      28.838  28.471  45.136  1.00  0.00    -0.361 OA
ATOM     13  H7  LIG A   1      29.591  29.062  45.280  1.00  0.00     0.217 HD
ENDBRANCH   4  12
TORSDOF 2
ENDMDL
MODEL 4
REMARK VINA RESULT:      -5.7      8.998     10.584
REMARK  2 active torsions:
REMARK  status: ('A' for Active; 'I' for Inactive)
REMARK       I    between atoms: C2_2  and  N1_4 
REMARK    1  A    between atoms: N1_4  and  C3_5 
REMARK    2  A    between atoms: C6_8  and  O2_9 
ROOT
ATOM      1  C3  LIG A   1      22.032  23.943  47.015  1.00  0.00     0.034 A 
ATOM      2  C4  LIG A   1      22.448  23.496  45.745  1.00  0.00     0.032 A 
ATOM      3  C5  LIG A   1      23.761  23.689  45.302  1.00  0.00     0.039 A 
ATOM      4  C6  LIG A   1      24.690  24.339  46.116  1.00  0.00     0.065 A 
ATOM      5  C7  LIG A   1      24.298  24.797  47.377  1.00  0.00     0.039 A 
ATOM      6  C8  LIG A   1      22.989  24.606  47.826  1.00  0.00     0.032 A 
ENDROOT
BRANCH   1   7
ATOM      7  N1  LIG A   1      20.664  23.696  47.401  1.00  0.00    -0.328 N 
ATOM      8  C2  LIG A   1      20.212  22.725  48.257  1.00  0.00     0.218 C 
ATOM      9  C1  LIG A   1      18.720  22.524  48.583  1.00  0.00     0.117 C 
ATOM     10  O1  LIG A   1      20.981  21.941  48.785  1.00  0.00    -0.274 OA
ATOM     11  H4  LIG A   1      19.955  24.306  46.966  1.00  0.00     0.169 HD
ENDBRANCH   1   7
BRANCH   4  12
ATOM     12  O2  LIG A   1      25.953  24.517  45.678  1.00  0.00    -0.361 OA
ATOM     13  H7  LIG A   1      26.240  25.339  45.257  1.00  0.00     0.217 HD
ENDBRANCH   4  12
TORSDOF 2
ENDMDL
MODEL 5
REMARK VINA RESULT:      -5.7      4.266      5.580
REMARK  2 active torsions:
REMARK  status: ('A' for Active; 'I' for Inactive)
REMARK       I    between atoms: C2_2  and  N1_4 
REMARK    1  A    between atoms: N1_4  and  C3_5 
REMARK    2  A    between atoms: C6_8  and  O2_9 
ROOT
ATOM      1  C3  LIG A   1      25.752  26.433  42.931  1.00  0.00     0.034 A 
ATOM      2  C4  LIG A   1      25.139  26.241  44.185  1.00  0.00     0.032 A 
ATOM      3  C5  LIG A   1      24.061  25.362  44.339  1.00  0.00     0.039 A 
ATOM      4  C6  LIG A   1      23.566  24.657  43.241  1.00  0.00     0.065 A 
ATOM      5  C7  LIG A   1      24.154  24.836  41.986  1.00  0.00     0.039 A 
ATOM      6  C8  LIG A   1      25.232  25.710  41.826  1.00  0.00     0.032 A 
ENDROOT
BRANCH   1   7
ATOM      7  N1  LIG A   1      26.865  27.348  42.859  1.00  0.00    -0.328 N 
ATOM      8  C2  LIG A   1      26.809  28.695  42.608  1.00  0.00     0.218 C 
ATOM      9  C1  LIG A   1      28.064  29.584  42.523  1.00  0.00     0.117 C 
ATOM     10  O1  LIG A   1      25.747  29.256  42.405  1.00  0.00    -0.274 OA
ATOM     11  H4  LIG A   1      27.800  26.934  42.992  1.00  0.00     0.169 HD
ENDBRANCH   1   7
BRANCH   4  12
ATOM     12  O2  LIG A   1      22.528  23.812  43.403  1.00  0.00    -0.361 OA
ATOM     13  H7  LIG A   1      22.650  22.894  43.681  1.00  0.00     0.217 HD
ENDBRANCH   4  12
TORSDOF 2
ENDMDL
MODEL 6
REMARK VINA RESULT:      -5.7      2.152      6.198
REMARK  2 active torsions:
REMARK  status: ('A' for Active; 'I' for Inactive)
REMARK       I    between atoms: C2_2  and  N1_4 
REMARK    1  A    between atoms: N1_4  and  C3_5 
REMARK    2  A    between atoms: C6_8  and  O2_9 
ROOT
ATOM      1  C3  LIG A   1      27.056  28.647  42.711  1.00  0.00     0.034 A 
ATOM      2  C4  LIG A   1      26.834  27.317  43.122  1.00  0.00     0.032 A 
ATOM      3  C5  LIG A   1      27.850  26.565  43.722  1.00  0.00     0.039 A 
ATOM      4  C6  LIG A   1      29.113  27.122  43.923  1.00  0.00     0.065 A 
ATOM      5  C7  LIG A   1      29.358  28.437  43.518  1.00  0.00     0.039 A 
ATOM      6  C8  LIG A   1      28.348  29.194  42.920  1.00  0.00     0.032 A 
ENDROOT
BRANCH   1   7
ATOM      7  N1  LIG A   1      25.954  29.358  42.110  1.00  0.00    -0.328 N 
ATOM      8  C2  LIG A   1      25.644  29.421  40.775  1.00  0.00     0.218 C 
ATOM      9  C1  LIG A   1      24.456  30.235  40.229  1.00  0.00     0.117 C 
ATOM     10  O1  LIG A   1      26.325  28.851  39.942  1.00  0.00    -0.274 OA
ATOM     11  H4  LIG A   1      25.352  29.890  42.757  1.00  0.00     0.169 HD
ENDBRANCH   1   7
BRANCH   4  12
ATOM     12  O2  LIG A   1      30.083  26.386  44.504  1.00  0.00    -0.361 OA
ATOM     13  H7  LIG A   1      30.674  26.754  45.176  1.00  0.00     0.217 HD
ENDBRANCH   4  12
TORSDOF 2
ENDMDL
MODEL 7
REMARK VINA RESULT:      -5.7      2.558      5.475
REMARK  2 active torsions:
REMARK  status: ('A' for Active; 'I' for Inactive)
REMARK       I    between atoms: C2_2  and  N1_4 
REMARK    1  A    between atoms: N1_4  and  C3_5 
REMARK    2  A    between atoms: C6_8  and  O2_9 
ROOT
ATOM      1  C3  LIG A   1      25.703  28.073  41.077  1.00  0.00     0.034 A 
ATOM      2  C4  LIG A   1      25.261  26.750  41.276  1.00  0.00     0.032 A 
ATOM      3  C5  LIG A   1      25.812  25.943  42.277  1.00  0.00     0.039 A 
ATOM      4  C6  LIG A   1      26.823  26.437  43.102  1.00  0.00     0.065 A 
ATOM      5  C7  LIG A   1      27.283  27.744  42.919  1.00  0.00     0.039 A 
ATOM      6  C8  LIG A   1      26.735  28.556  41.923  1.00  0.00     0.032 A 
ENDROOT
BRANCH   1   7
ATOM      7  N1  LIG A   1      25.076  28.843  40.031  1.00  0.00    -0.328 N 
ATOM      8  C2  LIG A   1      24.551  30.106  40.138  1.00  0.00     0.218 C 
ATOM      9  C1  LIG A   1      23.874  30.834  38.962  1.00  0.00     0.117 C 
ATOM     10  O1  LIG A   1      24.569  30.709  41.196  1.00  0.00    -0.274 OA
ATOM     11  H4  LIG A   1      25.001  28.380  39.113  1.00  0.00     0.169 HD
ENDBRANCH   1   7
BRANCH   4  12
ATOM     12  O2  LIG A   1      27.345  25.650  44.064  1.00  0.00    -0.361 OA
ATOM     13  H7  LIG A   1      26.899  25.509  44.911  1.00  0.00     0.217 HD
ENDBRANCH   4  12
TORSDOF 2
ENDMDL
MODEL 8
REMARK VINA RESULT:      -5.5      6.791      8.430
REMARK  2 active torsions:
REMARK  status: ('A' for Active; 'I' for Inactive)
REMARK       I    between atoms: C2_2  and  N1_4 
REMARK    1  A    between atoms: N1_4  and  C3_5 
REMARK    2  A    between atoms: C6_8  and  O2_9 
ROOT
ATOM      1  C3  LIG A   1      24.506  24.606  45.685  1.00  0.00     0.034 A 
ATOM      2  C4  LIG A   1      24.336  24.996  47.029  1.00  0.00     0.032 A 
ATOM      3  C5  LIG A   1      23.173  24.675  47.737  1.00  0.00     0.039 A 
ATOM      4  C6  LIG A   1      22.147  23.960  47.117  1.00  0.00     0.065 A 
ATOM      5  C7  LIG A   1      22.289  23.569  45.783  1.00  0.00     0.039 A 
ATOM      6  C8  LIG A   1      23.449  23.884  45.071  1.00  0.00     0.032 A 
ENDROOT
BRANCH   1   7
ATOM      7  N1  LIG A   1      25.739  24.967  45.029  1.00  0.00    -0.328 N 
ATOM      8  C2  LIG A   1      25.939  26.018  44.171  1.00  0.00     0.218 C 
ATOM      9  C1  LIG A   1      27.294  26.303  43.497  1.00  0.00     0.117 C 
ATOM     10  O1  LIG A   1      25.029  26.770  43.871  1.00  0.00    -0.274 OA
ATOM     11  H4  LIG A   1      26.546  24.353  45.216  1.00  0.00     0.169 HD
ENDBRANCH   1   7
BRANCH   4  12
ATOM     12  O2  LIG A   1      21.031  23.655  47.811  1.00  0.00    -0.361 OA
ATOM     13  H7  LIG A   1      20.961  23.806  48.764  1.00  0.00     0.217 HD
ENDBRANCH   4  12
TORSDOF 2
ENDMDL
MODEL 9
REMARK VINA RESULT:      -5.4      5.564      6.501
REMARK  2 active torsions:
REMARK  status: ('A' for Active; 'I' for Inactive)
REMARK       I    between atoms: C2_2  and  N1_4 
REMARK    1  A    between atoms: N1_4  and  C3_5 
REMARK    2  A    between atoms: C6_8  and  O2_9 
ROOT
ATOM      1  C3  LIG A   1      26.562  25.778  44.397  1.00  0.00     0.034 A 
ATOM      2  C4  LIG A   1      25.656  24.767  44.775  1.00  0.00     0.032 A 
ATOM      3  C5  LIG A   1      24.690  24.287  43.883  1.00  0.00     0.039 A 
ATOM      4  C6  LIG A   1      24.603  24.811  42.593  1.00  0.00     0.065 A 
ATOM      5  C7  LIG A   1      25.486  25.819  42.198  1.00  0.00     0.039 A 
ATOM      6  C8  LIG A   1      26.454  26.301  43.082  1.00  0.00     0.032 A 
ENDROOT
BRANCH   1   7
ATOM      7  N1  LIG A   1      27.534  26.210  45.372  1.00  0.00    -0.328 N 
ATOM      8  C2  LIG A   1      28.847  25.823  45.453  1.00  0.00     0.218 C 
ATOM      9  C1  LIG A   1      29.801  26.322  46.554  1.00  0.00     0.117 C 
ATOM     10  O1  LIG A   1      29.321  25.027  44.661  1.00  0.00    -0.274 OA
ATOM     11  H4  LIG A   1      27.192  26.863  46.092  1.00  0.00     0.169 HD
ENDBRANCH   1   7
BRANCH   4  12
ATOM     12  O2  LIG A   1      23.668  24.339  41.743  1.00  0.00    -0.361 OA
ATOM     13  H7  LIG A   1      22.785  24.080  42.040  1.00  0.00     0.217 HD
ENDBRANCH   4  12
TORSDOF 2
ENDMDL
MODEL 10
REMARK VINA RESULT:      -5.4      2.571      5.550
REMARK  2 active torsions:
REMARK  status: ('A' for Active; 'I' for Inactive)
REMARK       I    between atoms: C2_2  and  N1_4 
REMARK    1  A    between atoms: N1_4  and  C3_5 
REMARK    2  A    between atoms: C6_8  and  O2_9 
ROOT
ATOM      1  C3  LIG A   1      25.845  28.029  41.703  1.00  0.00     0.034 A 
ATOM      2  C4  LIG A   1      26.939  28.384  42.517  1.00  0.00     0.032 A 
ATOM      3  C5  LIG A   1      27.522  27.461  43.392  1.00  0.00     0.039 A 
ATOM      4  C6  LIG A   1      27.022  26.161  43.478  1.00  0.00     0.065 A 
ATOM      5  C7  LIG A   1      25.934  25.788  42.684  1.00  0.00     0.039 A 
ATOM      6  C8  LIG A   1      25.348  26.704  41.807  1.00  0.00     0.032 A 
ENDROOT
BRANCH   1   7
ATOM      7  N1  LIG A   1      25.308  29.036  40.820  1.00  0.00    -0.328 N 
ATOM      8  C2  LIG A   1      25.441  29.093  39.456  1.00  0.00     0.218 C 
ATOM      9  C1  LIG A   1      24.851  30.232  38.604  1.00  0.00     0.117 C 
ATOM     10  O1  LIG A   1      26.073  28.247  38.848  1.00  0.00    -0.274 OA
ATOM     11  H4  LIG A   1      24.786  29.802  41.273  1.00  0.00     0.169 HD
ENDBRANCH   1   7
BRANCH   4  12
ATOM     12  O2  LIG A   1      27.595  25.280  44.324  1.00  0.00    -0.361 OA
ATOM     13  H7  LIG A   1      27.504  24.324  44.209  1.00  0.00     0.217 HD
ENDBRANCH   4  12
TORSDOF 2
ENDMDL
MODEL 11
REMARK VINA RESULT:      -5.4      4.385      5.479
REMARK  2 active torsions:
REMARK  status: ('A' for Active; 'I' for Inactive)
REMARK       I    between atoms: C2_2  and  N1_4 
REMARK    1  A    between atoms: N1_4  and  C3_5 
REMARK    2  A    between atoms: C6_8  and  O2_9 
ROOT
ATOM      1  C3  LIG A   1      25.517  25.938  43.113  1.00  0.00     0.034 A 
ATOM      2  C4  LIG A   1      25.740  27.162  43.776  1.00  0.00     0.032 A 
ATOM      3  C5  LIG A   1      25.835  28.364  43.066  1.00  0.00     0.039 A 
ATOM      4  C6  LIG A   1      25.716  28.372  41.676  1.00  0.00     0.065 A 
ATOM      5  C7  LIG A   1      25.501  27.170  40.997  1.00  0.00     0.039 A 
ATOM      6  C8  LIG A   1      25.403  25.966  41.699  1.00  0.00     0.032 A 
ENDROOT
BRANCH   1   7
ATOM      7  N1  LIG A   1      25.421  24.744  43.918  1.00  0.00    -0.328 N 
ATOM      8  C2  LIG A   1      24.284  24.216  44.475  1.00  0.00     0.218 C 
ATOM      9  C1  LIG A   1      24.291  22.946  45.347  1.00  0.00     0.117 C 
ATOM     10  O1  LIG A   1      23.201  24.755  44.331  1.00  0.00    -0.274 OA
ATOM     11  H4  LIG A   1      26.308  24.253  44.105  1.00  0.00     0.169 HD
ENDBRANCH   1   7
BRANCH   4  12
ATOM     12  O2  LIG A   1      25.808  29.538  41.005  1.00  0.00    -0.361 OA
ATOM     13  H7  LIG A   1      25.376  29.674  40.150  1.00  0.00     0.217 HD
ENDBRANCH   4  12
TORSDOF 2
ENDMDL
MODEL 12
REMARK VINA RESULT:      -5.4      5.452      6.401
REMARK  2 active torsions:
REMARK  status: ('A' for Active; 'I' for Inactive)
REMARK       I    between atoms: C2_2  and  N1_4 
REMARK    1  A    between atoms: N1_4  and  C3_5 
REMARK    2  A    between atoms: C6_8  and  O2_9 
ROOT
ATOM      1  C3  LIG A   1      26.085  26.563  44.051  1.00  0.00     0.034 A 
ATOM      2  C4  LIG A   1      26.005  25.642  45.115  1.00  0.00     0.032 A 
ATOM      3  C5  LIG A   1      25.333  24.423  44.969  1.00  0.00     0.039 A 
ATOM      4  C6  LIG A   1      24.722  24.096  43.759  1.00  0.00     0.065 A 
ATOM      5  C7  LIG A   1      24.783  24.997  42.692  1.00  0.00     0.039 A 
ATOM      6  C8  LIG A   1      25.453  26.215  42.829  1.00  0.00     0.032 A 
ENDROOT
BRANCH   1   7
ATOM      7  N1  LIG A   1      26.804  27.793  44.279  1.00  0.00    -0.328 N 
ATOM      8  C2  LIG A   1      28.144  28.012  44.084  1.00  0.00     0.218 C 
ATOM      9  C1  LIG A   1      28.825  29.360  44.386  1.00  0.00     0.117 C 
ATOM     10  O1  LIG A   1      28.878  27.124  43.686  1.00  0.00    -0.274 OA
ATOM     11  H4  LIG A   1      26.248  28.580  44.646  1.00  0.00     0.169 HD
ENDBRANCH   1   7
BRANCH   4  12
ATOM     12  O2  LIG A   1      24.079  22.917  43.631  1.00  0.00    -0.361 OA
ATOM     13  H7  LIG A   1      23.207  22.762  44.018  1.00  0.00     0.217 HD
ENDBRANCH   4  12
TORSDOF 2
ENDMDL
MODEL 13
REMARK VINA RESULT:      -5.4      8.809     10.463
REMARK  2 active torsions:
REMARK  status: ('A' for Active; 'I' for Inactive)
REMARK       I    between atoms: C2_2  and  N1_4 
REMARK    1  A    between atoms: N1_4  and  C3_5 
REMARK    2  A    between atoms: C6_8  and  O2_9 
ROOT
ATOM      1  C3  LIG A   1      23.419  23.792  47.186  1.00  0.00     0.034 A 
ATOM      2  C4  LIG A   1      23.734  22.909  48.239  1.00  0.00     0.032 A 
ATOM      3  C5  LIG A   1      22.734  22.207  48.920  1.00  0.00     0.039 A 
ATOM      4  C6  LIG A   1      21.394  22.372  48.569  1.00  0.00     0.065 A 
ATOM      5  C7  LIG A   1      21.057  23.247  47.533  1.00  0.00     0.039 A 
ATOM      6  C8  LIG A   1      22.051  23.951  46.847  1.00  0.00     0.032 A 
ENDROOT
BRANCH   1   7
ATOM      7  N1  LIG A   1      24.509  24.470  46.528  1.00  0.00    -0.328 N 
ATOM      8  C2  LIG A   1      25.095  24.126  45.336  1.00  0.00     0.218 C 
ATOM      9  C1  LIG A   1      26.278  24.903  44.729  1.00  0.00     0.117 C 
ATOM     10  O1  LIG A   1      24.719  23.153  44.707  1.00  0.00    -0.274 OA
ATOM     11  H4  LIG A   1      24.896  25.288  47.022  1.00  0.00     0.169 HD
ENDBRANCH   1   7
BRANCH   4  12
ATOM     12  O2  LIG A   1      20.440  21.688  49.233  1.00  0.00    -0.361 OA
ATOM     13  H7  LIG A   1      19.502  21.910  49.158  1.00  0.00     0.217 HD
ENDBRANCH   4  12
TORSDOF 2
ENDMDL
MODEL 14
REMARK VINA RESULT:      -5.4      8.562      9.012
REMARK  2 active torsions:
REMARK  status: ('A' for Active; 'I' for Inactive)
REMARK       I    between atoms: C2_2  and  N1_4 
REMARK    1  A    between atoms: N1_4  and  C3_5 
REMARK    2  A    between atoms: C6_8  and  O2_9 
ROOT
ATOM      1  C3  LIG A   1      24.804  24.760  46.405  1.00  0.00     0.034 A 
ATOM      2  C4  LIG A   1      24.223  25.038  47.659  1.00  0.00     0.032 A 
ATOM      3  C5  LIG A   1      22.900  24.683  47.941  1.00  0.00     0.039 A 
ATOM      4  C6  LIG A   1      22.121  24.046  46.974  1.00  0.00     0.065 A 
ATOM      5  C7  LIG A   1      22.673  23.765  45.721  1.00  0.00     0.039 A 
ATOM      6  C8  LIG A   1      23.995  24.115  45.434  1.00  0.00     0.032 A 
ENDROOT
BRANCH   1   7
ATOM      7  N1  LIG A   1      26.177  25.149  46.198  1.00  0.00    -0.328 N 
ATOM      8  C2  LIG A   1      27.294  24.529  46.698  1.00  0.00     0.218 C 
ATOM      9  C1  LIG A   1      28.723  25.042  46.441  1.00  0.00     0.117 C 
ATOM     10  O1  LIG A   1      27.203  23.544  47.410  1.00  0.00    -0.274 OA
ATOM     11  H4  LIG A   1      26.326  25.995  45.628  1.00  0.00     0.169 HD
ENDBRANCH   1   7
BRANCH   4  12
ATOM     12  O2  LIG A   1      20.847  23.707  47.259  1.00  0.00    -0.361 OA
ATOM     13  H7  LIG A   1      20.627  22.914  47.766  1.00  0.00     0.217 HD
ENDBRANCH   4  12
TORSDOF 2
ENDMDL
MODEL 15
REMARK VINA RESULT:      -5.4      5.564      6.497
REMARK  2 active torsions:
REMARK  status: ('A' for Active; 'I' for Inactive)
REMARK       I    between atoms: C2_2  and  N1_4 
REMARK    1  A    between atoms: N1_4  and  C3_5 
REMARK    2  A    between atoms: C6_8  and  O2_9 
ROOT
ATOM      1  C3  LIG A   1      26.164  26.512  44.199  1.00  0.00     0.034 A 
ATOM      2  C4  LIG A   1      25.550  26.211  42.966  1.00  0.00     0.032 A 
ATOM      3  C5  LIG A   1      24.849  25.015  42.777  1.00  0.00     0.039 A 
ATOM      4  C6  LIG A   1      24.750  24.087  43.813  1.00  0.00     0.065 A 
ATOM      5  C7  LIG A   1      25.356  24.360  45.043  1.00  0.00     0.039 A 
ATOM      6  C8  LIG A   1      26.055  25.553  45.239  1.00  0.00     0.032 A 
ENDROOT
BRANCH   1   7
ATOM      7  N1  LIG A   1      26.859  27.771  44.316  1.00  0.00    -0.328 N 
ATOM      8  C2  LIG A   1      28.200  27.992  44.135  1.00  0.00     0.218 C 
ATOM      9  C1  LIG A   1      28.852  29.376  44.312  1.00  0.00     0.117 C 
ATOM     10  O1  LIG A   1      28.957  27.081  43.851  1.00  0.00    -0.274 OA
ATOM     11  H4  LIG A   1      26.281  28.582  44.584  1.00  0.00     0.169 HD
ENDBRANCH   1   7
BRANCH   4  12
ATOM     12  O2  LIG A   1      24.070  22.938  43.619  1.00  0.00    -0.361 OA
ATOM     13  H7  LIG A   1      23.131  22.853  43.836  1.00  0.00     0.217 HD
ENDBRANCH   4  12
TORSDOF 2
ENDMDL
MODEL 16
REMARK VINA RESULT:      -5.4      3.066      3.590
REMARK  2 active torsions:
REMARK  status: ('A' for Active; 'I' for Inactive)
REMARK       I    between atoms: C2_2  and  N1_4 
REMARK    1  A    between atoms: N1_4  and  C3_5 
REMARK    2  A    between atoms: C6_8  and  O2_9 
ROOT
ATOM      1  C3  LIG A   1      26.915  28.397  42.231  1.00  0.00     0.034 A 
ATOM      2  C4  LIG A   1      27.491  29.155  41.192  1.00  0.00     0.032 A 
ATOM      3  C5  LIG A   1      27.056  29.020  39.869  1.00  0.00     0.039 A 
ATOM      4  C6  LIG A   1      26.037  28.122  39.552  1.00  0.00     0.065 A 
ATOM      5  C7  LIG A   1      25.455  27.355  40.565  1.00  0.00     0.039 A 
ATOM      6  C8  LIG A   1      25.883  27.486  41.888  1.00  0.00     0.032 A 
ENDROOT
BRANCH   1   7
ATOM      7  N1  LIG A   1      27.413  28.603  43.570  1.00  0.00    -0.328 N 
ATOM      8  C2  LIG A   1      28.424  27.912  44.188  1.00  0.00     0.218 C 
ATOM      9  C1  LIG A   1      28.865  28.190  45.637  1.00  0.00     0.117 C 
ATOM     10  O1  LIG A   1      29.010  27.007  43.619  1.00  0.00    -0.274 OA
ATOM     11  H4  LIG A   1      26.941  29.335  44.120  1.00  0.00     0.169 HD
ENDBRANCH   1   7
BRANCH   4  12
ATOM     12  O2  LIG A   1      25.625  28.003  38.273  1.00  0.00    -0.361 OA
ATOM     13  H7  LIG A   1      25.699  28.729  37.639  1.00  0.00     0.217 HD
ENDBRANCH   4  12
TORSDOF 2
ENDMDL
MODEL 17
REMARK VINA RESULT:      -5.4      7.512      9.098
REMARK  2 active torsions:
REMARK  status: ('A' for Active; 'I' for Inactive)
REMARK       I    between atoms: C2_2  and  N1_4 
REMARK    1  A    between atoms: N1_4  and  C3_5 
REMARK    2  A    between atoms: C6_8  and  O2_9 
ROOT
ATOM      1  C3  LIG A   1      26.056  25.051  46.150  1.00  0.00     0.034 A 
ATOM      2  C4  LIG A   1      26.922  24.264  46.936  1.00  0.00     0.032 A 
ATOM      3  C5  LIG A   1      28.291  24.541  47.006  1.00  0.00     0.039 A 
ATOM      4  C6  LIG A   1      28.831  25.610  46.289  1.00  0.00     0.065 A 
ATOM      5  C7  LIG A   1      27.993  26.401  45.498  1.00  0.00     0.039 A 
ATOM      6  C8  LIG A   1      26.624  26.131  45.425  1.00  0.00     0.032 A 
ENDROOT
BRANCH   1   7
ATOM      7  N1  LIG A   1      24.655  24.706  46.140  1.00  0.00    -0.328 N 
ATOM      8  C2  LIG A   1      24.033  23.814  45.304  1.00  0.00     0.218 C 
ATOM      9  C1  LIG A   1      22.519  23.536  45.354  1.00  0.00     0.117 C 
ATOM     10  O1  LIG A   1      24.655  23.214  44.445  1.00  0.00    -0.274 OA
ATOM     11  H4  LIG A   1      24.063  25.201  46.823  1.00  0.00     0.169 HD
ENDBRANCH   1   7
BRANCH   4  12
ATOM     12  O2  LIG A   1      30.152  25.867  46.367  1.00  0.00    -0.361 OA
ATOM     13  H7  LIG A   1      30.779  25.232  46.739  1.00  0.00     0.217 HD
ENDBRANCH   4  12
TORSDOF 2
ENDMDL
MODEL 18
REMARK VINA RESULT:      -5.3      3.776      5.259
REMARK  2 active torsions:
REMARK  status: ('A' for Active; 'I' for Inactive)
REMARK       I    between atoms: C2_2  and  N1_4 
REMARK    1  A    between atoms: N1_4  and  C3_5 
REMARK    2  A    between atoms: C6_8  and  O2_9 
ROOT
ATOM      1  C3  LIG A   1      27.035  26.319  43.367  1.00  0.00     0.034 A 
ATOM      2  C4  LIG A   1      27.426  27.668  43.254  1.00  0.00     0.032 A 
ATOM      3  C5  LIG A   1      26.799  28.532  42.349  1.00  0.00     0.039 A 
ATOM      4  C6  LIG A   1      25.768  28.067  41.532  1.00  0.00     0.065 A 
ATOM      5  C7  LIG A   1      25.368  26.731  41.621  1.00  0.00     0.039 A 
ATOM      6  C8  LIG A   1      25.988  25.864  42.524  1.00  0.00     0.032 A 
ENDROOT
BRANCH   1   7
ATOM      7  N1  LIG A   1      27.725  25.496  44.331  1.00  0.00    -0.328 N 
ATOM      8  C2  LIG A   1      27.392  25.318  45.650  1.00  0.00     0.218 C 
ATOM      9  C1  LIG A   1      28.214  24.437  46.609  1.00  0.00     0.117 C 
ATOM     10  O1  LIG A   1      26.432  25.884  46.141  1.00  0.00    -0.274 OA
ATOM     11  H4  LIG A   1      28.567  25.010  43.990  1.00  0.00     0.169 HD
ENDBRANCH   1   7
BRANCH   4  12
ATOM     12  O2  LIG A   1      25.171  28.910  40.665  1.00  0.00    -0.361 OA
ATOM     13  H7  LIG A   1      24.566  28.598  39.978  1.00  0.00     0.217 HD
ENDBRANCH   4  12
TORSDOF 2
ENDMDL
MODEL 19
REMARK VINA RESULT:      -5.3      8.090      9.589
REMARK  2 active torsions:
REMARK  status: ('A' for Active; 'I' for Inactive)
REMARK       I    between atoms: C2_2  and  N1_4 
REMARK    1  A    between atoms: N1_4  and  C3_5 
REMARK    2  A    between atoms: C6_8  and  O2_9 
ROOT
ATOM      1  C3  LIG A   1      25.698  24.390  46.493  1.00  0.00     0.034 A 
ATOM      2  C4  LIG A   1      26.160  25.438  45.671  1.00  0.00     0.032 A 
ATOM      3  C5  LIG A   1      27.504  25.826  45.678  1.00  0.00     0.039 A 
ATOM      4  C6  LIG A   1      28.419  25.180  46.510  1.00  0.00     0.065 A 
ATOM      5  C7  LIG A   1      27.982  24.143  47.338  1.00  0.00     0.039 A 
ATOM      6  C8  LIG A   1      26.642  23.748  47.335  1.00  0.00     0.032 A 
ENDROOT
BRANCH   1   7
ATOM      7  N1  LIG A   1      24.299  24.043  46.419  1.00  0.00    -0.328 N 
ATOM      8  C2  LIG A   1      23.296  24.483  47.244  1.00  0.00     0.218 C 
ATOM      9  C1  LIG A   1      21.832  24.029  47.099  1.00  0.00     0.117 C 
ATOM     10  O1  LIG A   1      23.527  25.243  48.168  1.00  0.00    -0.274 OA
ATOM     11  H4  LIG A   1      24.038  23.378  45.676  1.00  0.00     0.169 HD
ENDBRANCH   1   7
BRANCH   4  12
ATOM     12  O2  LIG A   1      29.712  25.563  46.506  1.00  0.00    -0.361 OA
ATOM     13  H7  LIG A   1      30.388  25.088  46.003  1.00  0.00     0.217 HD
ENDBRANCH   4  12
TORSDOF 2
ENDMDL
MODEL 20
REMARK VINA RESULT:      -5.2      3.694      5.135
REMARK  2 active torsions:
REMARK  status: ('A' for Active; 'I' for Inactive)
REMARK       I    between atoms: C2_2  and  N1_4 
REMARK    1  A    between atoms: N1_4  and  C3_5 
REMARK    2  A    between atoms: C6_8  and  O2_9 
ROOT
ATOM      1  C3  LIG A   1      27.422  27.492  43.838  1.00  0.00     0.034 A 
ATOM      2  C4  LIG A   1      26.493  26.535  43.383  1.00  0.00     0.032 A 
ATOM      3  C5  LIG A   1      25.791  26.718  42.186  1.00  0.00     0.039 A 
ATOM      4  C6  LIG A   1      25.998  27.863  41.417  1.00  0.00     0.065 A 
ATOM      5  C7  LIG A   1      26.909  28.829  41.852  1.00  0.00     0.039 A 
ATOM      6  C8  LIG A   1      27.614  28.653  43.045  1.00  0.00     0.032 A 
ENDROOT
BRANCH   1   7
ATOM      7  N1  LIG A   1      28.112  27.225  45.077  1.00  0.00    -0.328 N 
ATOM      8  C2  LIG A   1      29.298  26.554  45.232  1.00  0.00     0.218 C 
ATOM      9  C1  LIG A   1      29.940  26.294  46.607  1.00  0.00     0.117 C 
ATOM     10  O1  LIG A   1      29.893  26.096  44.272  1.00  0.00    -0.274 OA
ATOM     11  H4  LIG A   1      27.647  27.560  45.934  1.00  0.00     0.169 HD
ENDBRANCH   1   7
BRANCH   4  12
ATOM     12  O2  LIG A   1      25.317  28.026  40.264  1.00  0.00    -0.361 OA
ATOM     13  H7  LIG A   1      24.390  28.305  40.249  1.00  0.00     0.217 HD
ENDBRANCH   4  12
TORSDOF 2
ENDMDL
