REMARK VINA RESULT:      -5.4      5.564      6.501
REMARK  2 active torsions:
REMARK  status: ('A' for Active; 'I' for Inactive)
REMARK       I    between atoms: C2_2  and  N1_4 
REMARK    1  A    between atoms: N1_4  and  C3_5 
REMARK    2  A    between atoms: C6_8  and  O2_9 
ROOT
ATOM      1  C3  LIG A   1      26.562  25.778  44.397  1.00  0.00     0.034 A 
ATOM      2  C4  LIG A   1      25.656  24.767  44.775  1.00  0.00     0.032 A 
ATOM      3  C5  LIG A   1      24.690  24.287  43.883  1.00  0.00     0.039 A 
ATOM      4  C6  LIG A   1      24.603  24.811  42.593  1.00  0.00     0.065 A 
ATOM      5  C7  LIG A   1      25.486  25.819  42.198  1.00  0.00     0.039 A 
ATOM      6  C8  LIG A   1      26.454  26.301  43.082  1.00  0.00     0.032 A 
ENDROOT
BRANCH   1   7
ATOM      7  N1  LIG A   1      27.534  26.210  45.372  1.00  0.00    -0.328 N 
ATOM      8  C2  LIG A   1      28.847  25.823  45.453  1.00  0.00     0.218 C 
ATOM      9  C1  LIG A   1      29.801  26.322  46.554  1.00  0.00     0.117 C 
ATOM     10  O1  LIG A   1      29.321  25.027  44.661  1.00  0.00    -0.274 OA
ATOM     11  H4  LIG A   1      27.192  26.863  46.092  1.00  0.00     0.169 HD
ENDBRANCH   1   7
BRANCH   4  12
ATOM     12  O2  LIG A   1      23.668  24.339  41.743  1.00  0.00    -0.361 OA
ATOM     13  H7  LIG A   1      22.785  24.080  42.040  1.00  0.00     0.217 HD
ENDBRANCH   4  12
TORSDOF 2
