REMARK VINA RESULT:      -5.4      3.066      3.590
REMARK  2 active torsions:
REMARK  status: ('A' for Active; 'I' for Inactive)
REMARK       I    between atoms: C2_2  and  N1_4 
REMARK    1  A    between atoms: N1_4  and  C3_5 
REMARK    2  A    between atoms: C6_8  and  O2_9 
ROOT
ATOM      1  C3  LIG A   1      26.915  28.397  42.231  1.00  0.00     0.034 A 
ATOM      2  C4  LIG A   1      27.491  29.155  41.192  1.00  0.00     0.032 A 
ATOM      3  C5  LIG A   1      27.056  29.020  39.869  1.00  0.00     0.039 A 
ATOM      4  C6  LIG A   1      26.037  28.122  39.552  1.00  0.00     0.065 A 
ATOM      5  C7  LIG A   1      25.455  27.355  40.565  1.00  0.00     0.039 A 
ATOM      6  C8  LIG A   1      25.883  27.486  41.888  1.00  0.00     0.032 A 
ENDROOT
BRANCH   1   7
ATOM      7  N1  LIG A   1      27.413  28.603  43.570  1.00  0.00    -0.328 N 
ATOM      8  C2  LIG A   1      28.424  27.912  44.188  1.00  0.00     0.218 C 
ATOM      9  C1  LIG A   1      28.865  28.190  45.637  1.00  0.00     0.117 C 
ATOM     10  O1  LIG A   1      29.010  27.007  43.619  1.00  0.00    -0.274 OA
ATOM     11  H4  LIG A   1      26.941  29.335  44.120  1.00  0.00     0.169 HD
ENDBRANCH   1   7
BRANCH   4  12
ATOM     12  O2  LIG A   1      25.625  28.003  38.273  1.00  0.00    -0.361 OA
ATOM     13  H7  LIG A   1      25.699  28.729  37.639  1.00  0.00     0.217 HD
ENDBRANCH   4  12
TORSDOF 2
