REMARK VINA RESULT:      -5.7      2.558      5.475
REMARK  2 active torsions:
REMARK  status: ('A' for Active; 'I' for Inactive)
REMARK       I    between atoms: C2_2  and  N1_4 
REMARK    1  A    between atoms: N1_4  and  C3_5 
REMARK    2  A    between atoms: C6_8  and  O2_9 
ROOT
ATOM      1  C3  LIG A   1      25.703  28.073  41.077  1.00  0.00     0.034 A 
ATOM      2  C4  LIG A   1      25.261  26.750  41.276  1.00  0.00     0.032 A 
ATOM      3  C5  LIG A   1      25.812  25.943  42.277  1.00  0.00     0.039 A 
ATOM      4  C6  LIG A   1      26.823  26.437  43.102  1.00  0.00     0.065 A 
ATOM      5  C7  LIG A   1      27.283  27.744  42.919  1.00  0.00     0.039 A 
ATOM      6  C8  LIG A   1      26.735  28.556  41.923  1.00  0.00     0.032 A 
ENDROOT
BRANCH   1   7
ATOM      7  N1  LIG A   1      25.076  28.843  40.031  1.00  0.00    -0.328 N 
ATOM      8  C2  LIG A   1      24.551  30.106  40.138  1.00  0.00     0.218 C 
ATOM      9  C1  LIG A   1      23.874  30.834  38.962  1.00  0.00     0.117 C 
ATOM     10  O1  LIG A   1      24.569  30.709  41.196  1.00  0.00    -0.274 OA
ATOM     11  H4  LIG A   1      25.001  28.380  39.113  1.00  0.00     0.169 HD
ENDBRANCH   1   7
BRANCH   4  12
ATOM     12  O2  LIG A   1      27.345  25.650  44.064  1.00  0.00    -0.361 OA
ATOM     13  H7  LIG A   1      26.899  25.509  44.911  1.00  0.00     0.217 HD
ENDBRANCH   4  12
TORSDOF 2
