REMARK VINA RESULT:      -5.3      3.776      5.259
REMARK  2 active torsions:
REMARK  status: ('A' for Active; 'I' for Inactive)
REMARK       I    between atoms: C2_2  and  N1_4 
REMARK    1  A    between atoms: N1_4  and  C3_5 
REMARK    2  A    between atoms: C6_8  and  O2_9 
ROOT
ATOM      1  C3  LIG A   1      27.035  26.319  43.367  1.00  0.00     0.034 A 
ATOM      2  C4  LIG A   1      27.426  27.668  43.254  1.00  0.00     0.032 A 
ATOM      3  C5  LIG A   1      26.799  28.532  42.349  1.00  0.00     0.039 A 
ATOM      4  C6  LIG A   1      25.768  28.067  41.532  1.00  0.00     0.065 A 
ATOM      5  C7  LIG A   1      25.368  26.731  41.621  1.00  0.00     0.039 A 
ATOM      6  C8  LIG A   1      25.988  25.864  42.524  1.00  0.00     0.032 A 
ENDROOT
BRANCH   1   7
ATOM      7  N1  LIG A   1      27.725  25.496  44.331  1.00  0.00    -0.328 N 
ATOM      8  C2  LIG A   1      27.392  25.318  45.650  1.00  0.00     0.218 C 
ATOM      9  C1  LIG A   1      28.214  24.437  46.609  1.00  0.00     0.117 C 
ATOM     10  O1  LIG A   1      26.432  25.884  46.141  1.00  0.00    -0.274 OA
ATOM     11  H4  LIG A   1      28.567  25.010  43.990  1.00  0.00     0.169 HD
ENDBRANCH   1   7
BRANCH   4  12
ATOM     12  O2  LIG A   1      25.171  28.910  40.665  1.00  0.00    -0.361 OA
ATOM     13  H7  LIG A   1      24.566  28.598  39.978  1.00  0.00     0.217 HD
ENDBRANCH   4  12
TORSDOF 2
