REMARK VINA RESULT:      -5.4      4.385      5.479
REMARK  2 active torsions:
REMARK  status: ('A' for Active; 'I' for Inactive)
REMARK       I    between atoms: C2_2  and  N1_4 
REMARK    1  A    between atoms: N1_4  and  C3_5 
REMARK    2  A    between atoms: C6_8  and  O2_9 
ROOT
ATOM      1  C3  LIG A   1      25.517  25.938  43.113  1.00  0.00     0.034 A 
ATOM      2  C4  LIG A   1      25.740  27.162  43.776  1.00  0.00     0.032 A 
ATOM      3  C5  LIG A   1      25.835  28.364  43.066  1.00  0.00     0.039 A 
ATOM      4  C6  LIG A   1      25.716  28.372  41.676  1.00  0.00     0.065 A 
ATOM      5  C7  LIG A   1      25.501  27.170  40.997  1.00  0.00     0.039 A 
ATOM      6  C8  LIG A   1      25.403  25.966  41.699  1.00  0.00     0.032 A 
ENDROOT
BRANCH   1   7
ATOM      7  N1  LIG A   1      25.421  24.744  43.918  1.00  0.00    -0.328 N 
ATOM      8  C2  LIG A   1      24.284  24.216  44.475  1.00  0.00     0.218 C 
ATOM      9  C1  LIG A   1      24.291  22.946  45.347  1.00  0.00     0.117 C 
ATOM     10  O1  LIG A   1      23.201  24.755  44.331  1.00  0.00    -0.274 OA
ATOM     11  H4  LIG A   1      26.308  24.253  44.105  1.00  0.00     0.169 HD
ENDBRANCH   1   7
BRANCH   4  12
ATOM     12  O2  LIG A   1      25.808  29.538  41.005  1.00  0.00    -0.361 OA
ATOM     13  H7  LIG A   1      25.376  29.674  40.150  1.00  0.00     0.217 HD
ENDBRANCH   4  12
TORSDOF 2
